src/applications/data_sets/raw/Polish_model_v33.raw
0 ,  100.000,   33, 0,1, 60.00
 0,    100.00, 30, 0, 0, 60.00       / September 06, 2016 22:53:52; Simulator V
 0,    100.00, 30, 0, 0, 60.00       / September 06, 2016 22:53:52; Simulator V
     1,'1           ',220.0000,1,   1,   1,   1,1.091230,-2.529971,1.100000,0.900000,1.100000,0.900000
     2,'2           ',220.0000,1,   1,   1,   1,1.092345,-0.728930,1.100000,0.900000,1.100000,0.900000
     3,'3           ',220.0000,1,   1,   1,   1,1.053845,-25.701939,1.100000,0.900000,1.100000,0.900000
     4,'4           ',220.0000,1,   1,   1,   1,1.053801,-25.711460,1.100000,0.900000,1.100000,0.900000
     5,'5           ',220.0000,1,   1,   1,   1,1.064565,-27.822212,1.100000,0.900000,1.100000,0.900000
     6,'6           ',220.0000,1,   1,   1,   1,1.057921,-7.447913,1.100000,0.900000,1.100000,0.900000
     7,'7           ',220.0000,1,   1,   1,   1,1.057906,-7.449853,1.100000,0.900000,1.100000,0.900000
     8,'8           ',220.0000,1,   1,   1,   1,1.066699,-15.888587,1.100000,0.900000,1.100000,0.900000
     9,'9           ',220.0000,1,   1,   1,   1,1.066952,-15.872956,1.100000,0.900000,1.100000,0.900000
    10,'10          ',220.0000,1,   1,   1,   1,1.076928,-20.174858,1.100000,0.900000,1.100000,0.900000
    11,'11          ',400.0000,1,   1,   1,   1,1.010355,-11.790504,1.100000,0.900000,1.100000,0.900000
    12,'12          ',400.0000,1,   1,   1,   1,1.010420,-11.781775,1.100000,0.900000,1.100000,0.900000
    13,'13          ',400.0000,1,   1,   1,   1,0.982784,-16.092756,1.100000,0.900000,1.100000,0.900000
    14,'14          ',220.0000,1,   1,   1,   1,1.014448,-16.487797,1.100000,0.900000,1.100000,0.900000
    15,'15          ',220.0000,1,   1,   1,   1,1.014268,-16.491549,1.100000,0.900000,1.100000,0.900000
    16,'16          ',220.0000,1,   1,   1,   1,0.983522,-21.048187,1.100000,0.900000,1.100000,0.900000
    17,'17          ',220.0000,1,   1,   1,   1,0.981074,-21.103018,1.100000,0.900000,1.100000,0.900000
    18,'18          ',400.0000,1,   1,   1,   1,1.012013,-10.418365,1.100000,0.900000,1.100000,0.900000
    19,'19          ',400.0000,1,   1,   1,   1,1.012078,-10.409015,1.100000,0.900000,1.100000,0.900000
    20,'20          ',400.0000,1,   1,   1,   1,0.988948,-19.865797,1.100000,0.900000,1.100000,0.900000
    21,'21          ',400.0000,1,   1,   1,   1,1.003809,-16.161236,1.100000,0.900000,1.100000,0.900000
    22,'22          ',220.0000,2,   1,   1,   1,1.068180,-19.982048,1.100000,0.900000,1.100000,0.900000
    23,'23          ',220.0000,2,   1,   1,   1,1.068180,-19.983007,1.100000,0.900000,1.100000,0.900000
    24,'24          ',220.0000,1,   1,   1,   1,1.064980,-6.617832,1.100000,0.900000,1.100000,0.900000
    25,'25          ',220.0000,1,   1,   1,   1,1.065064,-6.629132,1.100000,0.900000,1.100000,0.900000
    26,'26          ',220.0000,1,   1,   1,   1,1.015137,-19.832838,1.100000,0.900000,1.100000,0.900000
    27,'27          ',220.0000,1,   1,   1,   1,1.015113,-19.830359,1.100000,0.900000,1.100000,0.900000
    28,'28          ',220.0000,1,   1,   1,   1,1.017191,-15.672796,1.100000,0.900000,1.100000,0.900000
    29,'29          ',220.0000,1,   1,   1,   1,1.017099,-15.689116,1.100000,0.900000,1.100000,0.900000
    30,'30          ',220.0000,1,   1,   1,   1,1.071872,-4.160272,1.100000,0.900000,1.100000,0.900000
    31,'31          ',220.0000,1,   1,   1,   1,1.071753,-4.183342,1.100000,0.900000,1.100000,0.900000
    32,'32          ',400.0000,1,   1,   1,   1,1.005871,-14.949747,1.100000,0.900000,1.100000,0.900000
    33,'33          ',400.0000,1,   1,   1,   1,1.005843,-14.955236,1.100000,0.900000,1.100000,0.900000
    34,'34          ',400.0000,1,   1,   1,   1,0.999490,-18.377817,1.100000,0.900000,1.100000,0.900000
    35,'35          ',220.0000,2,   1,   1,   1,1.095450,-2.342651,1.100000,0.900000,1.100000,0.900000
    36,'36          ',220.0000,2,   1,   1,   1,1.095450,-0.548080,1.100000,0.900000,1.100000,0.900000
    37,'37          ',400.0000,3,   1,   1,   1,1.040000, 0.000000,1.100000,0.900000,1.100000,0.900000
    38,'38          ',400.0000,2,   1,   1,   1,1.040000,-0.006300,1.100000,0.900000,1.100000,0.900000
    39,'39          ',220.0000,1,   1,   1,   1,1.010069,-18.073145,1.100000,0.900000,1.100000,0.900000
    40,'40          ',220.0000,1,   1,   1,   1,1.009980,-18.076538,1.100000,0.900000,1.100000,0.900000
    41,'41          ',400.0000,1,   1,   1,   1,1.034481,-1.900081,1.100000,0.900000,1.100000,0.900000
    42,'42          ',400.0000,1,   1,   1,   1,1.034464,-1.902501,1.100000,0.900000,1.100000,0.900000
    43,'43          ',220.0000,1,   1,   1,   1,1.009704,-16.827848,1.100000,0.900000,1.100000,0.900000
    44,'44          ',400.0000,1,   1,   1,   1,1.003906,-16.161716,1.100000,0.900000,1.100000,0.900000
    45,'45          ',220.0000,1,   1,   1,   1,1.047187,-9.399504,1.100000,0.900000,1.100000,0.900000
    46,'46          ',220.0000,1,   1,   1,   1,1.047267,-9.407774,1.100000,0.900000,1.100000,0.900000
    47,'47          ',220.0000,1,   1,   2,   1,1.065123,-7.381463,1.100000,0.900000,1.100000,0.900000
    48,'48          ',220.0000,1,   1,   2,   1,1.068871,-4.348012,1.100000,0.900000,1.100000,0.900000
    49,'49          ',220.0000,1,   1,   2,   1,1.080237,-2.523551,1.100000,0.900000,1.100000,0.900000
    50,'50          ',220.0000,1,   1,   2,   1,1.080220,-2.526941,1.100000,0.900000,1.100000,0.900000
    51,'51          ',220.0000,1,   1,   2,   1,1.038884,-8.311593,1.100000,0.900000,1.100000,0.900000
    52,'52          ',220.0000,1,   1,   2,   1,1.082505,-4.619782,1.100000,0.900000,1.100000,0.900000
    53,'53          ',220.0000,1,   1,   2,   1,1.082565,-4.608952,1.100000,0.900000,1.100000,0.900000
    54,'54          ',400.0000,1,   1,   2,   1,1.021578,-3.740261,1.100000,0.900000,1.100000,0.900000
    55,'55          ',220.0000,2,   1,   2,   1,1.090875,-6.933333,1.100000,0.900000,1.100000,0.900000
    56,'56          ',220.0000,2,   1,   2,   1,1.090730,-6.949313,1.100000,0.900000,1.100000,0.900000
    57,'57          ',220.0000,2,   1,   2,   1,1.090910,-6.923993,1.100000,0.900000,1.100000,0.900000
    58,'58          ',400.0000,2,   1,   2,   1,1.035000,-6.686812,1.100000,0.900000,1.100000,0.900000
    59,'59          ',400.0000,2,   1,   2,   1,1.035027,-6.681172,1.100000,0.900000,1.100000,0.900000
    60,'60          ',220.0000,1,   1,   2,   1,1.076740,-5.226362,1.100000,0.900000,1.100000,0.900000
    61,'61          ',400.0000,1,   1,   2,   1,1.046516,-3.589631,1.100000,0.900000,1.100000,0.900000
    62,'62          ',400.0000,1,   1,   2,   1,1.046507,-3.590981,1.100000,0.900000,1.100000,0.900000
    63,'63          ',400.0000,1,   1,   2,   1,1.029674,-7.754873,1.100000,0.900000,1.100000,0.900000
    64,'64          ',220.0000,1,   1,   2,   1,1.051542,-6.491693,1.100000,0.900000,1.100000,0.900000
    65,'65          ',220.0000,1,   1,   2,   1,1.051523,-6.484762,1.100000,0.900000,1.100000,0.900000
    66,'66          ',400.0000,1,   1,   2,   1,1.031092,-4.959472,1.100000,0.900000,1.100000,0.900000
    67,'67          ',400.0000,1,   1,   2,   1,1.031096,-4.952282,1.100000,0.900000,1.100000,0.900000
    68,'68          ',220.0000,2,   1,   2,   1,1.086467,-0.884190,1.100000,0.900000,1.100000,0.900000
    69,'69          ',220.0000,2,   1,   2,   1,1.086360,-0.868440,1.100000,0.900000,1.100000,0.900000
    70,'70          ',400.0000,2,   1,   2,   1,1.032451,-2.743291,1.100000,0.900000,1.100000,0.900000
    71,'71          ',400.0000,2,   1,   2,   1,1.032500,-2.743351,1.100000,0.900000,1.100000,0.900000
    72,'72          ',220.0000,1,   1,   2,   1,1.075229,-7.688303,1.100000,0.900000,1.100000,0.900000
    73,'73          ',220.0000,1,   1,   2,   1,1.075225,-7.686313,1.100000,0.900000,1.100000,0.900000
    74,'74          ',220.0000,1,   1,   2,   1,1.076396,-4.777252,1.100000,0.900000,1.100000,0.900000
    75,'75          ',220.0000,1,   1,   2,   1,1.076428,-4.782382,1.100000,0.900000,1.100000,0.900000
    76,'76          ',220.0000,1,   1,   2,   1,1.081263,-7.380393,1.100000,0.900000,1.100000,0.900000
    77,'77          ',220.0000,1,   1,   2,   1,1.081267,-7.385443,1.100000,0.900000,1.100000,0.900000
    78,'78          ',400.0000,1,   1,   2,   1,1.043397,-3.326131,1.100000,0.900000,1.100000,0.900000
    79,'79          ',400.0000,1,   1,   2,   1,1.043403,-3.329341,1.100000,0.900000,1.100000,0.900000
    80,'80          ',220.0000,1,   1,   2,   1,1.073007,-4.208032,1.100000,0.900000,1.100000,0.900000
    81,'81          ',220.0000,1,   1,   2,   1,1.074245,-4.194802,1.100000,0.900000,1.100000,0.900000
    82,'82          ',220.0000,1,   1,   2,   1,1.054912,-5.104023,1.100000,0.900000,1.100000,0.900000
    83,'83          ',220.0000,1,   1,   3,   1,1.074026,-2.630821,1.100000,0.900000,1.100000,0.900000
    84,'84          ',220.0000,1,   1,   3,   1,1.069270,-3.069921,1.100000,0.900000,1.100000,0.900000
    85,'85          ',220.0000,1,   1,   3,   1,1.069071,-3.084281,1.100000,0.900000,1.100000,0.900000
    86,'86          ',220.0000,1,   1,   3,   1,1.066224,-0.955580,1.100000,0.900000,1.100000,0.900000
    87,'87          ',220.0000,1,   1,   3,   1,1.066348,-0.945120,1.100000,0.900000,1.100000,0.900000
    88,'88          ',220.0000,1,   1,   3,   1,1.081551, 0.697760,1.100000,0.900000,1.100000,0.900000
    89,'89          ',220.0000,1,   1,   3,   1,1.081572, 0.693820,1.100000,0.900000,1.100000,0.900000
    90,'90          ',220.0000,1,   1,   3,   1,1.039415,-3.014381,1.100000,0.900000,1.100000,0.900000
    91,'91          ',220.0000,1,   1,   3,   1,1.039177,-3.014581,1.100000,0.900000,1.100000,0.900000
    92,'92          ',220.0000,2,   1,   3,   1,1.077004,-0.052590,1.100000,0.900000,1.100000,0.900000
    93,'93          ',220.0000,2,   1,   3,   1,1.078633,-0.183190,1.100000,0.900000,1.100000,0.900000
    94,'94          ',220.0000,1,   1,   3,   1,1.059518,-0.334540,1.100000,0.900000,1.100000,0.900000
    95,'95          ',220.0000,1,   1,   3,   1,1.059526,-0.337590,1.100000,0.900000,1.100000,0.900000
    96,'96          ',400.0000,2,   1,   3,   1,1.037500, 1.420531,1.100000,0.900000,1.100000,0.900000
    97,'97          ',400.0000,1,   1,   3,   1,1.037473, 1.393051,1.100000,0.900000,1.100000,0.900000
    98,'98          ',220.0000,1,   1,   3,   1,1.037603,-1.257910,1.100000,0.900000,1.100000,0.900000
    99,'99          ',220.0000,1,   1,   3,   1,1.077131, 0.474080,1.100000,0.900000,1.100000,0.900000
   100,'100         ',220.0000,1,   1,   3,   1,1.077116, 0.467700,1.100000,0.900000,1.100000,0.900000
   101,'101         ',220.0000,1,   1,   3,   1,1.077166,-2.386211,1.100000,0.900000,1.100000,0.900000
   102,'102         ',220.0000,1,   1,   3,   1,1.077123,-2.387381,1.100000,0.900000,1.100000,0.900000
   103,'103         ',220.0000,1,   1,   3,   1,1.073705,-0.060590,1.100000,0.900000,1.100000,0.900000
   104,'104         ',220.0000,1,   1,   3,   1,1.073604,-0.062920,1.100000,0.900000,1.100000,0.900000
   105,'105         ',220.0000,1,   1,   3,   1,1.079410,-2.143391,1.100000,0.900000,1.100000,0.900000
   106,'106         ',220.0000,1,   1,   3,   1,1.079430,-2.144971,1.100000,0.900000,1.100000,0.900000
   107,'107         ',400.0000,1,   1,   3,   1,1.038770,-1.169670,1.100000,0.900000,1.100000,0.900000
   108,'108         ',400.0000,1,   1,   3,   1,1.038798,-1.163121,1.100000,0.900000,1.100000,0.900000
   109,'109         ',220.0000,1,   1,   3,   1,1.076578, 0.347390,1.100000,0.900000,1.100000,0.900000
   110,'110         ',220.0000,1,   1,   3,   1,1.076556, 0.350560,1.100000,0.900000,1.100000,0.900000
   111,'111         ',220.0000,1,   1,   3,   1,1.058043, 0.354200,1.100000,0.900000,1.100000,0.900000
   112,'112         ',220.0000,1,   1,   3,   1,1.057952, 0.346010,1.100000,0.900000,1.100000,0.900000
   113,'113         ',220.0000,2,   1,   3,   1,1.073964,-1.298260,1.100000,0.900000,1.100000,0.900000
   114,'114         ',220.0000,1,   1,   3,   1,1.073958,-1.306000,1.100000,0.900000,1.100000,0.900000
   115,'115         ',220.0000,1,   1,   3,   1,1.069384,-3.052131,1.100000,0.900000,1.100000,0.900000
   116,'116         ',220.0000,1,   1,   3,   1,1.069390,-3.054881,1.100000,0.900000,1.100000,0.900000
   117,'117         ',220.0000,1,   1,   3,   1,1.026213,-2.989531,1.100000,0.900000,1.100000,0.900000
   118,'118         ',220.0000,1,   1,   3,   1,1.026126,-2.986301,1.100000,0.900000,1.100000,0.900000
   119,'119         ',220.0000,2,   1,   3,   1,1.081820, 1.028530,1.100000,0.900000,1.100000,0.900000
   120,'120         ',220.0000,2,   1,   3,   1,1.081820, 1.012000,1.100000,0.900000,1.100000,0.900000
   121,'121         ',220.0000,2,   1,   3,   1,1.081817, 0.254720,1.100000,0.900000,1.100000,0.900000
   122,'122         ',220.0000,2,   1,   3,   1,1.081820, 0.268160,1.100000,0.900000,1.100000,0.900000
   123,'123         ',220.0000,1,   1,   3,   1,1.072277,-2.177741,1.100000,0.900000,1.100000,0.900000
   124,'124         ',220.0000,1,   1,   3,   1,1.072302,-2.182291,1.100000,0.900000,1.100000,0.900000
   125,'125         ',220.0000,1,   1,   3,   1,1.027394,-3.365781,1.100000,0.900000,1.100000,0.900000
   126,'126         ',220.0000,1,   1,   3,   1,1.058506, 0.346530,1.100000,0.900000,1.100000,0.900000
   127,'127         ',220.0000,1,   1,   3,   1,1.058523, 0.343120,1.100000,0.900000,1.100000,0.900000
   128,'128         ',220.0000,1,   1,   3,   1,1.059705,-0.550180,1.100000,0.900000,1.100000,0.900000
   129,'129         ',220.0000,1,   1,   3,   1,1.059833,-0.545970,1.100000,0.900000,1.100000,0.900000
   130,'130         ',400.0000,1,   1,   3,   1,1.033728,-0.568120,1.100000,0.900000,1.100000,0.900000
   131,'131         ',400.0000,1,   1,   3,   1,1.033728,-0.568120,1.100000,0.900000,1.100000,0.900000
   132,'132         ',220.0000,2,   1,   3,   1,1.074890,-0.696890,1.100000,0.900000,1.100000,0.900000
   133,'133         ',220.0000,2,   1,   3,   1,1.074829,-0.697990,1.100000,0.900000,1.100000,0.900000
   134,'134         ',220.0000,2,   1,   3,   1,1.041602,-2.215571,1.100000,0.900000,1.100000,0.900000
   135,'135         ',220.0000,1,   1,   3,   1,1.041690,-2.217121,1.100000,0.900000,1.100000,0.900000
   136,'136         ',400.0000,1,   1,   3,   1,1.041910,-3.223651,1.100000,0.900000,1.100000,0.900000
   137,'137         ',400.0000,1,   1,   3,   1,1.041978,-3.222671,1.100000,0.900000,1.100000,0.900000
   138,'138         ',400.0000,1,   1,   3,   1,1.042092,-1.440491,1.100000,0.900000,1.100000,0.900000
   139,'139         ',400.0000,1,   1,   3,   1,1.042101,-1.442411,1.100000,0.900000,1.100000,0.900000
   140,'140         ',220.0000,1,   1,   3,   1,1.019227,-3.647652,1.100000,0.900000,1.100000,0.900000
   141,'141         ',220.0000,1,   1,   3,   1,1.019258,-3.643461,1.100000,0.900000,1.100000,0.900000
   142,'142         ',220.0000,2,   1,   3,   1,1.081820, 1.918351,1.100000,0.900000,1.100000,0.900000
   143,'143         ',220.0000,2,   1,   3,   1,1.081820, 1.930821,1.100000,0.900000,1.100000,0.900000
   144,'144         ',400.0000,2,   1,   3,   1,1.037500, 0.970710,1.100000,0.900000,1.100000,0.900000
   145,'145         ',400.0000,1,   1,   3,   1,1.037459, 0.965120,1.100000,0.900000,1.100000,0.900000
   146,'146         ',220.0000,1,   1,   3,   1,1.076233,-2.408781,1.100000,0.900000,1.100000,0.900000
   147,'147         ',220.0000,1,   1,   3,   1,1.076270,-2.400981,1.100000,0.900000,1.100000,0.900000
   148,'148         ',220.0000,1,   1,   3,   1,1.078140, 0.106820,1.100000,0.900000,1.100000,0.900000
   149,'149         ',220.0000,1,   1,   3,   1,1.078083,-2.125471,1.100000,0.900000,1.100000,0.900000
   150,'150         ',220.0000,2,   1,   3,   1,1.039494,-3.014961,1.100000,0.900000,1.100000,0.900000
   151,'151         ',220.0000,2,   1,   3,   1,1.039255,-3.015171,1.100000,0.900000,1.100000,0.900000
   152,'152         ',220.0000,2,   1,   4,   1,1.066049,-12.125275,1.100000,0.900000,1.100000,0.900000
   153,'153         ',220.0000,2,   1,   4,   1,1.066054,-12.133474,1.100000,0.900000,1.100000,0.900000
   154,'154         ',220.0000,1,   1,   4,   1,1.037808,-9.580744,1.100000,0.900000,1.100000,0.900000
   155,'155         ',220.0000,1,   1,   4,   1,1.037807,-9.581714,1.100000,0.900000,1.100000,0.900000
   156,'156         ',220.0000,1,   1,   4,   1,1.008905,-11.162444,1.100000,0.900000,1.100000,0.900000
   157,'157         ',220.0000,1,   1,   4,   1,1.057460,-8.149513,1.100000,0.900000,1.100000,0.900000
   158,'158         ',220.0000,1,   1,   4,   1,1.057364,-8.157403,1.100000,0.900000,1.100000,0.900000
   159,'159         ',400.0000,1,   1,   4,   1,1.007698,-6.773413,1.100000,0.900000,1.100000,0.900000
   160,'160         ',400.0000,1,   1,   4,   1,1.007684,-6.773532,1.100000,0.900000,1.100000,0.900000
   161,'161         ',220.0000,1,   1,   4,   1,1.009225,-21.292269,1.100000,0.900000,1.100000,0.900000
   162,'162         ',220.0000,1,   1,   4,   1,1.050471,-32.974594,1.100000,0.900000,1.100000,0.900000
   163,'163         ',220.0000,1,   1,   4,   1,1.050471,-32.974594,1.100000,0.900000,1.100000,0.900000
   164,'164         ',220.0000,1,   1,   4,   1,1.025541,-27.873802,1.100000,0.900000,1.100000,0.900000
   165,'165         ',220.0000,1,   1,   4,   1,1.025541,-27.873802,1.100000,0.900000,1.100000,0.900000
   166,'166         ',220.0000,1,   1,   4,   1,1.004330,-11.449815,1.100000,0.900000,1.100000,0.900000
   167,'167         ',220.0000,2,   1,   4,   1,1.052902,-16.163027,1.100000,0.900000,1.100000,0.900000
   168,'168         ',220.0000,1,   1,   4,   1,1.052945,-16.167557,1.100000,0.900000,1.100000,0.900000
   169,'169         ',220.0000,2,   1,   4,   1,1.081719,-31.250273,1.100000,0.900000,1.100000,0.900000
   170,'170         ',220.0000,2,   1,   4,   1,1.081820,-31.231743,1.100000,0.900000,1.100000,0.900000
   171,'171         ',400.0000,2,   1,   4,   1,1.032500,-24.190990,1.100000,0.900000,1.100000,0.900000
   172,'172         ',400.0000,2,   1,   4,   1,1.032520,-24.176399,1.100000,0.900000,1.100000,0.900000
   173,'173         ',220.0000,1,   1,   4,   1,0.973737,-21.106649,1.100000,0.900000,1.100000,0.900000
   174,'174         ',220.0000,1,   1,   4,   1,0.973796,-21.114698,1.100000,0.900000,1.100000,0.900000
   175,'175         ',220.0000,1,   1,   4,   1,0.996593,-20.557718,1.100000,0.900000,1.100000,0.900000
   176,'176         ',220.0000,1,   1,   4,   1,0.996710,-20.550230,1.100000,0.900000,1.100000,0.900000
   177,'177         ',220.0000,2,   1,   4,   1,1.090910,-4.930882,1.100000,0.900000,1.100000,0.900000
   178,'178         ',220.0000,2,   1,   4,   1,1.090910,-4.929422,1.100000,0.900000,1.100000,0.900000
   179,'179         ',220.0000,1,   1,   4,   1,1.090910,-4.929422,1.100000,0.900000,1.100000,0.900000
   180,'180         ',400.0000,2,   1,   4,   1,1.026957,-3.822441,1.100000,0.900000,1.100000,0.900000
   181,'181         ',400.0000,1,   1,   4,   1,1.026914,-3.824962,1.100000,0.900000,1.100000,0.900000
   182,'182         ',220.0000,1,   1,   4,   1,1.053884,-32.915920,1.100000,0.900000,1.100000,0.900000
   183,'183         ',220.0000,1,   1,   4,   1,1.053884,-32.915920,1.100000,0.900000,1.100000,0.900000
   184,'184         ',400.0000,1,   1,   4,   1,1.014984,-5.600042,1.100000,0.900000,1.100000,0.900000
   185,'185         ',400.0000,1,   1,   4,   1,0.993573,-12.685175,1.100000,0.900000,1.100000,0.900000
   186,'186         ',400.0000,1,   1,   4,   1,1.012922,-5.103673,1.100000,0.900000,1.100000,0.900000
   187,'187         ',400.0000,1,   1,   4,   1,1.012984,-5.092332,1.100000,0.900000,1.100000,0.900000
   188,'188         ',220.0000,2,   1,   4,   1,1.054550,-16.272127,1.100000,0.900000,1.100000,0.900000
   189,'189         ',220.0000,2,   1,   4,   1,1.054461,-16.292517,1.100000,0.900000,1.100000,0.900000
   190,'190         ',400.0000,2,   1,   4,   1,1.005000,-10.411854,1.100000,0.900000,1.100000,0.900000
   191,'191         ',220.0000,1,   1,   4,   1,1.005933,-28.758072,1.100000,0.900000,1.100000,0.900000
   192,'192         ',220.0000,1,   1,   4,   1,1.005987,-28.771173,1.100000,0.900000,1.100000,0.900000
   193,'193         ',220.0000,1,   1,   4,   1,1.048580,-33.089622,1.100000,0.900000,1.100000,0.900000
   194,'194         ',220.0000,1,   1,   4,   1,1.048569,-33.090992,1.100000,0.900000,1.100000,0.900000
   195,'195         ',220.0000,1,   1,   4,   1,1.012790,-21.019310,1.100000,0.900000,1.100000,0.900000
   196,'196         ',220.0000,1,   1,   4,   1,1.012692,-21.031160,1.100000,0.900000,1.100000,0.900000
   197,'197         ',400.0000,1,   1,   4,   1,0.975662,-17.416338,1.100000,0.900000,1.100000,0.900000
...
0 / END OF BUS DATA, BEGIN LOAD DATA
    22,'1 ',1,   1,   1,    10.000,    20.000,     0.000,     0.000,     0.000,     0.000,   1,1,0
    23,'1 ',1,   1,   1,    10.000,    20.000,     0.000,     0.000,     0.000,     0.000,   1,1,0
    35,'1 ',1,   1,   1,    32.160,    52.070,     0.000,     0.000,     0.000,     0.000,   1,1,0
    36,'1 ',1,   1,   1,    46.360,    92.070,     0.000,     0.000,     0.000,     0.000,   1,1,0
    37,'1 ',1,   1,   1,    60.000,   120.000,     0.000,     0.000,     0.000,     0.000,   1,1,0
    38,'1 ',1,   1,   1,    60.000,   120.000,     0.000,     0.000,     0.000,     0.000,   1,1,0
    52,'1 ',1,   1,   1,     3.970,     1.000,     0.000,     0.000,     0.000,     0.000,   1,1,0
    55,'1 ',1,   1,   1,    13.000,    30.000,     0.000,     0.000,     0.000,     0.000,   1,1,0
    56,'1 ',1,   1,   1,    39.350,    90.070,     0.000,     0.000,     0.000,     0.000,   1,1,0
    57,'1 ',1,   1,   1,    26.000,    60.000,     0.000,     0.000,     0.000,     0.000,   1,1,0
    58,'1 ',1,   1,   1,    26.000,    50.000,     0.000,     0.000,     0.000,     0.000,   1,1,0
    59,'1 ',1,   1,   1,    26.000,    50.000,     0.000,     0.000,     0.000,     0.000,   1,1,0
    68,'1 ',1,   1,   1,    13.000,    30.000,     0.000,     0.000,     0.000,     0.000,   1,1,0
    69,'1 ',1,   1,   1,    26.000,    60.000,     0.000,     0.000,     0.000,     0.000,   1,1,0
    70,'1 ',1,   1,   1,     0.000,     2.250,     0.000,     0.000,     0.000,     0.000,   1,1,0
    71,'1 ',1,   1,   1,    26.000,    60.000,     0.000,     0.000,     0.000,     0.000,   1,1,0
    84,'1 ',1,   1,   1,     6.410,     2.010,     0.000,     0.000,     0.000,     0.000,   1,1,0
    85,'1 ',1,   1,   1,    13.890,     5.020,     0.000,     0.000,     0.000,     0.000,   1,1,0
    92,'1 ',1,   1,   1,    28.000,    70.000,     0.000,     0.000,     0.000,     0.000,   1,1,0
    93,'1 ',1,   1,   1,    28.000,    68.000,     0.000,     0.000,     0.000,     0.000,   1,1,0
    94,'1 ',1,   1,   1,     2.780,     1.910,     0.000,     0.000,     0.000,     0.000,   1,1,0
    96,'1 ',1,   1,   1,    32.000,   142.000,     0.000,     0.000,     0.000,     0.000,   1,1,0
   101,'1 ',1,   1,   1,    38.800,    -2.700,     0.000,     0.000,     0.000,     0.000,   1,1,0
   113,'1 ',1,   1,   1,    38.410,    12.710,     0.000,     0.000,     0.000,     0.000,   1,1,0
   119,'1 ',1,   1,   1,    10.000,    44.000,     0.000,     0.000,     0.000,     0.000,   1,1,0
   120,'1 ',1,   1,   1,    10.000,    44.000,     0.000,     0.000,     0.000,     0.000,   1,1,0
   121,'1 ',1,   1,   1,     7.000,    18.000,     0.000,     0.000,     0.000,     0.000,   1,1,0
   122,'1 ',1,   1,   1,     8.000,    21.000,     0.000,     0.000,     0.000,     0.000,   1,1,0
   124,'1 ',1,   1,   1,    59.400,    11.610,     0.000,     0.000,     0.000,     0.000,   1,1,0
   132,'1 ',1,   1,   1,     0.000,     1.780,     0.000,     0.000,     0.000,     0.000,   1,1,0
   133,'1 ',1,   1,   1,     9.000,    20.000,     0.000,     0.000,     0.000,     0.000,   1,1,0
   134,'1 ',1,   1,   1,     6.000,    15.000,     0.000,     0.000,     0.000,     0.000,   1,1,0
   142,'1 ',1,   1,   1,    18.200,    37.210,     0.000,     0.000,     0.000,     0.000,   1,1,0
   143,'1 ',1,   1,   1,    41.520,    73.010,     0.000,     0.000,     0.000,     0.000,   1,1,0
   144,'1 ',1,   1,   1,    28.000,    66.000,     0.000,     0.000,     0.000,     0.000,   1,1,0
   150,'1 ',1,   1,   1,     0.000,    -0.790,     0.000,     0.000,     0.000,     0.000,   1,1,0
   151,'1 ',1,   1,   1,     0.000,    -0.790,     0.000,     0.000,     0.000,     0.000,   1,1,0
   152,'1 ',1,   1,   1,     7.700,    20.000,     0.000,     0.000,     0.000,     0.000,   1,1,0
   153,'1 ',1,   1,   1,     7.800,    20.000,     0.000,     0.000,     0.000,     0.000,   1,1,0
   167,'1 ',1,   1,   1,     0.000,   -13.010,     0.000,     0.000,     0.000,     0.000,   1,1,0
   169,'1 ',1,   1,   1,    12.000,    30.000,     0.000,     0.000,     0.000,     0.000,   1,1,0
   170,'1 ',1,   1,   1,    19.910,    36.570,     0.000,     0.000,     0.000,     0.000,   1,1,0
   171,'1 ',1,   1,   1,    12.000,    30.000,     0.000,     0.000,     0.000,     0.000,   1,1,0
   172,'1 ',1,   1,   1,    12.000,    30.000,     0.000,     0.000,     0.000,     0.000,   1,1,0
   177,'1 ',1,   1,   1,    30.500,    64.200,     0.000,     0.000,     0.000,     0.000,   1,1,0
   178,'1 ',1,   1,   1,    58.900,    96.000,     0.000,     0.000,     0.000,     0.000,   1,1,0
   180,'1 ',1,   1,   1,    26.500,    64.200,     0.000,     0.000,     0.000,     0.000,   1,1,0
   188,'1 ',1,   1,   1,    12.000,    30.000,     0.000,     0.000,     0.000,     0.000,   1,1,0
   189,'1 ',1,   1,   1,    23.800,    60.000,     0.000,     0.000,     0.000,     0.000,   1,1,0
   190,'1 ',1,   1,   1,    38.000,    64.000,     0.000,     0.000,     0.000,     0.000,   1,1,0
   204,'1 ',1,   1,   1,     0.000,    -7.170,     0.000,     0.000,     0.000,     0.000,   1,1,0
   236,'1 ',1,   1,   1,    11.000,    40.000,     0.000,     0.000,     0.000,     0.000,   1,1,0
   237,'1 ',1,   1,   1,     5.000,    10.000,     0.000,     0.000,     0.000,     0.000,   1,1,0
   240,'1 ',1,   1,   1,     8.000,    20.000,     0.000,     0.000,     0.000,     0.000,   1,1,0
   241,'1 ',1,   1,   1,     9.860,     2.000,     0.000,     0.000,     0.000,     0.000,   1,1,0
   242,'1 ',1,   1,   1,     6.410,     0.000,     0.000,     0.000,     0.000,     0.000,   1,1,0
   243,'1 ',1,   1,   1,     9.370,     0.600,     0.000,     0.000,     0.000,     0.000,   1,1,0
   244,'1 ',1,   1,   1,     7.250,     4.000,     0.000,     0.000,     0.000,     0.000,   1,1,0
   246,'1 ',1,   1,   1,     2.180,     2.400,     0.000,     0.000,     0.000,     0.000,   1,1,0
   247,'1 ',1,   1,   1,     5.120,     4.910,     0.000,     0.000,     0.000,     0.000,   1,1,0
   248,'1 ',1,   1,   1,     3.650,     0.900,     0.000,     0.000,     0.000,     0.000,   1,1,0
   249,'1 ',1,   1,   1,     3.850,     1.000,     0.000,     0.000,     0.000,     0.000,   1,1,0
   250,'1 ',1,   1,   1,     4.440,    -1.760,     0.000,     0.000,     0.000,     0.000,   1,1,0
   251,'1 ',1,   1,   1,     2.500,     0.000,     0.000,     0.000,     0.000,     0.000,   1,1,0
   252,'1 ',1,   1,   1,    17.760,     1.200,     0.000,     0.000,     0.000,     0.000,   1,1,0
   253,'1 ',1,   1,   1,    12.330,     2.100,     0.000,     0.000,     0.000,     0.000,   1,1,0
   254,'1 ',1,   1,   1,     7.410,     0.990,     0.000,     0.000,     0.000,     0.000,   1,1,0
   255,'1 ',1,   1,   1,     4.930,     0.000,     0.000,     0.000,     0.000,     0.000,   1,1,0
   256,'1 ',1,   1,   1,     4.930,     0.000,     0.000,     0.000,     0.000,     0.000,   1,1,0
   257,'1 ',1,   1,   1,    14.800,     2.500,     0.000,     0.000,     0.000,     0.000,   1,1,0
   258,'1 ',1,   1,   1,     5.420,     1.100,     0.000,     0.000,     0.000,     0.000,   1,1,0
   259,'1 ',1,   1,   1,     4.440,     1.000,     0.000,     0.000,     0.000,     0.000,   1,1,0
   260,'1 ',1,   1,   1,     2.960,     0.500,     0.000,     0.000,     0.000,     0.000,   1,1,0
   261,'1 ',1,   1,   1,     5.420,     0.600,     0.000,     0.000,     0.000,     0.000,   1,1,0
   263,'1 ',1,   1,   1,     2.960,     0.900,     0.000,     0.000,     0.000,     0.000,   1,1,0
   264,'1 ',1,   1,   1,     5.330,     1.500,     0.000,     0.000,     0.000,     0.000,   1,1,0
   265,'1 ',1,   1,   1,     3.450,     0.700,     0.000,     0.000,     0.000,     0.000,   1,1,0
   266,'1 ',1,   1,   1,     3.450,     0.700,     0.000,     0.000,     0.000,     0.000,   1,1,0
   267,'1 ',1,   1,   1,     4.340,     1.800,     0.000,     0.000,     0.000,     0.000,   1,1,0
   268,'1 ',1,   1,   1,     4.340,     1.800,     0.000,     0.000,     0.000,     0.000,   1,1,0
   269,'1 ',1,   1,   1,     6.250,     2.000,     0.000,     0.000,     0.000,     0.000,   1,1,0
   270,'1 ',1,   1,   1,     6.690,     3.000,     0.000,     0.000,     0.000,     0.000,   1,1,0
   271,'1 ',1,   1,   1,     0.490,     0.200,     0.000,     0.000,     0.000,     0.000,   1,1,0
   272,'1 ',1,   1,   1,     0.790,     0.200,     0.000,     0.000,     0.000,     0.000,   1,1,0
   273,'1 ',1,   1,   1,     1.180,    -0.900,     0.000,     0.000,     0.000,     0.000,   1,1,0
   274,'1 ',1,   1,   1,     4.740,     0.500,     0.000,     0.000,     0.000,     0.000,   1,1,0
   276,'1 ',1,   1,   1,     3.160,     0.100,     0.000,     0.000,     0.000,     0.000,   1,1,0
   277,'1 ',1,   1,   1,     7.400,     1.300,     0.000,     0.000,     0.000,     0.000,   1,1,0
   278,'1 ',1,   1,   1,    10.360,     1.300,     0.000,     0.000,     0.000,     0.000,   1,1,0
   279,'1 ',1,   1,   1,     2.270,     1.110,     0.000,     0.000,     0.000,     0.000,   1,1,0
   280,'1 ',1,   1,   1,     5.330,     1.600,     0.000,     0.000,     0.000,     0.000,   1,1,0
   281,'1 ',1,   1,   1,     2.070,     0.100,     0.000,     0.000,     0.000,     0.000,   1,1,0
   282,'1 ',1,   1,   1,     1.870,     0.090,     0.000,     0.000,     0.000,     0.000,   1,1,0
   283,'1 ',1,   1,   1,     1.870,     0.310,     0.000,     0.000,     0.000,     0.000,   1,1,0
   284,'1 ',1,   1,   1,     8.580,     3.000,     0.000,     0.000,     0.000,     0.000,   1,1,0
   285,'1 ',1,   1,   1,     1.580,     0.400,     0.000,     0.000,     0.000,     0.000,   1,1,0
   286,'1 ',1,   1,   1,     4.440,     1.100,     0.000,     0.000,     0.000,     0.000,   1,1,0
   287,'1 ',1,   1,   1,     5.330,     0.500,     0.000,     0.000,     0.000,     0.000,   1,1,0
   288,'1 ',1,   1,   1,     4.640,     0.400,     0.000,     0.000,     0.000,     0.000,   1,1,0
   289,'1 ',1,   1,   1,    13.890,     7.760,     0.000,     0.000,     0.000,     0.000,   1,1,0
   290,'1 ',1,   1,   1,    19.520,    11.230,     0.000,     0.000,     0.000,     0.000,   1,1,0
   291,'1 ',1,   1,   1,     6.810,     0.500,     0.000,     0.000,     0.000,     0.000,   1,1,0
   292,'1 ',1,   1,   1,     9.570,     3.840,     0.000,     0.000,     0.000,     0.000,   1,1,0
   294,'1 ',1,   1,   1,     8.380,     0.800,     0.000,     0.000,     0.000,     0.000,   1,1,0
   296,'1 ',1,   1,   1,     3.950,     0.400,     0.000,     0.000,     0.000,     0.000,   1,1,0
   297,'1 ',1,   1,   1,     5.420,     0.600,     0.000,     0.000,     0.000,     0.000,   1,1,0
   298,'1 ',1,   1,   1,     2.470,     0.300,     0.000,     0.000,     0.000,     0.000,   1,1,0
   300,'1 ',1,   1,   1,     0.490,     0.200,     0.000,     0.000,     0.000,     0.000,   1,1,0
   301,'1 ',1,   1,   1,     0.170,     0.300,     0.000,     0.000,     0.000,     0.000,   1,1,0
   302,'1 ',1,   1,   1,     0.060,     0.100,     0.000,     0.000,     0.000,     0.000,   1,1,0
   303,'1 ',1,   1,   1,     5.920,     0.700,     0.000,     0.000,     0.000,     0.000,   1,1,0
   304,'1 ',1,   1,   1,     0.300,     0.100,     0.000,     0.000,     0.000,     0.000,   1,1,0
   305,'1 ',1,   1,   1,     0.400,     0.100,     0.000,     0.000,     0.000,     0.000,   1,1,0
   306,'1 ',1,   1,   1,    10.060,     7.010,     0.000,     0.000,     0.000,     0.000,   1,1,0
   307,'1 ',1,   1,   1,     0.490,     0.200,     0.000,     0.000,     0.000,     0.000,   1,1,0
   308,'1 ',1,   1,   1,     8.090,     1.300,     0.000,     0.000,     0.000,     0.000,   1,1,0
   309,'1 ',1,   1,   1,     4.740,     0.400,     0.000,     0.000,     0.000,     0.000,   1,1,0
   310,'1 ',1,   1,   1,     4.740,     1.740,     0.000,     0.000,     0.000,     0.000,   1,1,0
   311,'1 ',1,   1,   1,     2.860,    -1.400,     0.000,     0.000,     0.000,     0.000,   1,1,0
   312,'1 ',1,   1,   1,     2.860,    -1.400,     0.000,     0.000,     0.000,     0.000,   1,1,0
   313,'1 ',1,   1,   1,     3.080,     2.000,     0.000,     0.000,     0.000,     0.000,   1,1,0
   316,'1 ',1,   1,   1,    20.000,    40.000,     0.000,     0.000,     0.000,     0.000,   1,1,0
   317,'1 ',1,   1,   1,     4.930,     1.000,     0.000,     0.000,     0.000,     0.000,   1,1,0
   318,'1 ',1,   1,   1,     2.960,     0.700,     0.000,     0.000,     0.000,     0.000,   1,1,0
   319,'1 ',1,   1,   1,     3.950,     1.000,     0.000,     0.000,     0.000,     0.000,   1,1,0
   320,'1 ',1,   1,   1,     1.480,     0.200,     0.000,     0.000,     0.000,     0.000,   1,1,0
   322,'1 ',1,   1,   1,     0.000,    -3.420,     0.000,     0.000,     0.000,     0.000,   1,1,0
   323,'1 ',1,   1,   1,     5.420,     1.000,     0.000,     0.000,     0.000,     0.000,   1,1,0
   324,'1 ',1,   1,   1,     6.410,     1.000,     0.000,     0.000,     0.000,     0.000,   1,1,0
   325,'1 ',1,   1,   1,     1.970,     0.000,     0.000,     0.000,     0.000,     0.000,   1,1,0
   326,'1 ',1,   1,   1,     4.740,     0.700,     0.000,     0.000,     0.000,     0.000,   1,1,0
   328,'1 ',1,   1,   1,     9.990,     5.110,     0.000,     0.000,     0.000,     0.000,   1,1,0
   329,'1 ',1,   1,   1,     7.680,     4.500,     0.000,     0.000,     0.000,     0.000,   1,1,0
   330,'1 ',1,   1,   1,    18.570,     4.000,     0.000,     0.000,     0.000,     0.000,   1,1,0
   331,'1 ',1,   1,   1,    17.670,     7.310,     0.000,     0.000,     0.000,     0.000,   1,1,0
   332,'1 ',1,   1,   1,     5.920,     1.000,     0.000,     0.000,     0.000,     0.000,   1,1,0
   333,'1 ',1,   1,   1,     6.910,     1.000,     0.000,     0.000,     0.000,     0.000,   1,1,0
   334,'1 ',1,   1,   1,    36.500,     2.000,     0.000,     0.000,     0.000,     0.000,   1,1,0
   335,'1 ',1,   1,   1,     3.950,     0.500,     0.000,     0.000,     0.000,     0.000,   1,1,0
   336,'1 ',1,   1,   1,     3.750,     0.700,     0.000,     0.000,     0.000,     0.000,   1,1,0
   337,'1 ',1,   1,   1,     2.070,     0.400,     0.000,     0.000,     0.000,     0.000,   1,1,0
   338,'1 ',1,   1,   1,     9.670,     3.560,     0.000,     0.000,     0.000,     0.000,   1,1,0
   340,'1 ',1,   1,   1,     6.410,     0.600,     0.000,     0.000,     0.000,     0.000,   1,1,0
   341,'1 ',1,   1,   1,     4.990,     1.200,     0.000,     0.000,     0.000,     0.000,   1,1,0
   342,'1 ',1,   1,   1,     6.790,     2.500,     0.000,     0.000,     0.000,     0.000,   1,1,0
   343,'1 ',1,   1,   1,     1.970,     1.300,     0.000,     0.000,     0.000,     0.000,   1,1,0
   344,'1 ',1,   1,   1,    27.670,    20.420,     0.000,     0.000,     0.000,     0.000,   1,1,0
   345,'1 ',1,   1,   1,    20.430,    20.620,     0.000,     0.000,     0.000,     0.000,   1,1,0
   346,'1 ',1,   1,   1,    36.500,    12.010,     0.000,     0.000,     0.000,     0.000,   1,1,0
   347,'1 ',1,   1,   1,     4.560,     3.000,     0.000,     0.000,     0.000,     0.000,   1,1,0
   348,'1 ',1,   1,   1,     9.960,     0.900,     0.000,     0.000,     0.000,     0.000,   1,1,0
   350,'1 ',1,   1,   1,     7.000,     2.000,     0.000,     0.000,     0.000,     0.000,   1,1,0
   352,'1 ',1,   1,   1,    13.320,     1.400,     0.000,     0.000,     0.000,     0.000,   1,1,0
   353,'1 ',1,   1,   1,     2.470,     0.000,     0.000,     0.000,     0.000,     0.000,   1,1,0
   354,'1 ',1,   1,   1,     1.970,     0.000,     0.000,     0.000,     0.000,     0.000,   1,1,0
   355,'1 ',1,   1,   1,     5.920,     1.560,     0.000,     0.000,     0.000,     0.000,   1,1,0
   356,'1 ',1,   1,   1,     5.920,     1.560,     0.000,     0.000,     0.000,     0.000,   1,1,0
   359,'1 ',1,   1,   1,     0.180,     0.050,     0.000,     0.000,     0.000,     0.000,   1,1,0
   361,'1 ',1,   1,   1,    15.190,     7.910,     0.000,     0.000,     0.000,     0.000,   1,1,0
   363,'1 ',1,   1,   1,     3.650,     0.800,     0.000,     0.000,     0.000,     0.000,   1,1,0
   364,'1 ',1,   1,   1,     3.650,     0.800,     0.000,     0.000,     0.000,     0.000,   1,1,0
   365,'1 ',1,   1,   1,     1.970,     0.400,     0.000,     0.000,     0.000,     0.000,   1,1,0
   366,'1 ',1,   1,   1,     6.410,     1.000,     0.000,     0.000,     0.000,     0.000,   1,1,0
   367,'1 ',1,   1,   1,     6.690,     2.200,     0.000,     0.000,     0.000,     0.000,   1,1,0
   368,'1 ',1,   1,   1,     5.530,     1.800,     0.000,     0.000,     0.000,     0.000,   1,1,0
   369,'1 ',1,   1,   1,     0.150,     0.670,     0.000,     0.000,     0.000,     0.000,   1,1,0
   370,'1 ',1,   1,   1,    18.520,    12.250,     0.000,     0.000,     0.000,     0.000,   1,1,0
   371,'1 ',1,   1,   1,    14.090,     6.130,     0.000,     0.000,     0.000,     0.000,   1,1,0
   372,'1 ',1,   1,   1,     1.970,     0.400,     0.000,     0.000,     0.000,     0.000,   1,1,0
   374,'1 ',1,   1,   1,    12.040,     4.840,     0.000,     0.000,     0.000,     0.000,   1,1,0
   376,'1 ',1,   1,   1,     2.470,     0.800,     0.000,     0.000,     0.000,     0.000,   1,1,0
   377,'1 ',1,   1,   1,     5.130,     2.200,     0.000,     0.000,     0.000,     0.000,   1,1,0
   378,'1 ',1,   1,   1,     5.620,     2.400,     0.000,     0.000,     0.000,     0.000,   1,1,0
   380,'1 ',1,   1,   1,     7.890,     1.300,     0.000,     0.000,     0.000,     0.000,   1,1,0
   381,'1 ',1,   1,   1,     2.960,     0.000,     0.000,     0.000,     0.000,     0.000,   1,1,0
   382,'1 ',1,   1,   1,     3.280,     2.000,     0.000,     0.000,     0.000,     0.000,   1,1,0
   383,'1 ',1,   1,   1,     3.130,     2.000,     0.000,     0.000,     0.000,     0.000,   1,1,0
   384,'1 ',1,   1,   1,     2.860,     0.200,     0.000,     0.000,     0.000,     0.000,   1,1,0
   385,'1 ',1,   1,   1,     8.530,     3.300,     0.000,     0.000,     0.000,     0.000,   1,1,0
   386,'1 ',1,   1,   1,     9.790,     4.710,     0.000,     0.000,     0.000,     0.000,   1,1,0
   387,'1 ',1,   1,   1,     8.200,     1.800,     0.000,     0.000,     0.000,     0.000,   1,1,0
   388,'1 ',1,   1,   1,     5.620,     2.070,     0.000,     0.000,     0.000,     0.000,   1,1,0
   390,'1 ',1,   1,   1,     3.740,     0.850,     0.000,     0.000,     0.000,     0.000,   1,1,0
   391,'1 ',1,   1,   1,     5.330,     0.700,     0.000,     0.000,     0.000,     0.000,   1,1,0
   392,'1 ',1,   1,   1,    11.440,     0.700,     0.000,     0.000,     0.000,     0.000,   1,1,0
   393,'1 ',1,   1,   1,     2.070,     0.700,     0.000,     0.000,     0.000,     0.000,   1,1,0
   394,'1 ',1,   1,   1,     2.070,     0.700,     0.000,     0.000,     0.000,     0.000,   1,1,0
   395,'1 ',1,   1,   1,     9.670,     3.880,     0.000,     0.000,     0.000,     0.000,   1,1,0
   397,'1 ',1,   1,   1,     9.570,     3.520,     0.000,     0.000,     0.000,     0.000,   1,1,0
   398,'1 ',1,   1,   1,     4.930,    -0.660,     0.000,     0.000,     0.000,     0.000,   1,1,0
   399,'1 ',1,   1,   1,     5.420,     0.500,     0.000,     0.000,     0.000,     0.000,   1,1,0
   401,'1 ',1,   1,   1,     4.540,     1.900,     0.000,     0.000,     0.000,     0.000,   1,1,0
   402,'1 ',1,   1,   1,    14.990,     6.030,     0.000,     0.000,     0.000,     0.000,   1,1,0
   404,'1 ',1,   1,   1,    10.950,     4.030,     0.000,     0.000,     0.000,     0.000,   1,1,0
   406,'1 ',1,   1,   1,    14.210,     5.240,     0.000,     0.000,     0.000,     0.000,   1,1,0
   407,'1 ',1,   1,   1,    17.760,     6.540,     0.000,     0.000,     0.000,     0.000,   1,1,0
   408,'1 ',1,   1,   1,     5.660,     1.520,     0.000,     0.000,     0.000,     0.000,   1,1,0
   409,'1 ',1,   1,   1,    22.700,     9.130,     0.000,     0.000,     0.000,     0.000,   1,1,0
   411,'1 ',1,   1,   1,    14.440,    10.730,     0.000,     0.000,     0.000,     0.000,   1,1,0
   412,'1 ',1,   1,   1,    14.200,     0.680,     0.000,     0.000,     0.000,     0.000,   1,1,0
...
0 / END OF LOAD DATA, BEGIN FIXED SHUNT DATA
0 / END OF FIXED SHUNT DATA, BEGIN GENERATOR DATA
    22,'1 ',   180.000,    48.773,   162.000,   -61.000,1.068180,     0,   221.000,   0.00000,   0.18000,   0.00000,   0.00000,   1.00000,1,  100.0,   221.000,   110.000,   1,1.0000
    23,'1 ',   180.000,    35.697,   140.000,   -25.000,1.068180,     0,   219.940,   0.00000,   0.18000,   0.00000,   0.00000,   1.00000,1,  100.0,   200.000,   140.000,   1,1.0000
    35,'1 ',     0.000,     0.000,   190.000,   -19.000,1.095450,     0,   370.000,   0.00000,   0.21000,   0.00000,   0.00000,   1.00000,0,  100.0,   370.000,   240.000,   1,1.0000
    35,'2 ',     0.000,     0.000,   190.000,   -19.000,1.095450,     0,   370.000,   0.00000,   0.21000,   0.00000,   0.00000,   1.00000,0,  100.0,   370.000,   240.000,   1,1.0000
    35,'3 ',   345.000,   145.881,   190.000,   -19.000,1.095450,     0,   449.450,   0.00000,   0.21000,   0.00000,   0.00000,   1.00000,1,  100.0,   370.000,   240.000,   1,1.0000
    36,'1 ',   370.000,    85.002,   190.000,   -19.000,1.095450,     0,   455.560,   0.00000,   0.21000,   0.00000,   0.00000,   1.00000,1,  100.0,   370.000,   240.000,   1,1.0000
    36,'2 ',   320.000,    85.002,   190.000,   -19.000,1.095450,     0,   397.310,   0.00000,   0.21000,   0.00000,   0.00000,   1.00000,1,  100.0,   370.000,   240.000,   1,1.0000
    37,'1 ',   511.103,    59.471,   190.000,   -19.000,1.040000,     0,   616.840,   0.00000,   0.23500,   0.00000,   0.00000,   1.00000,1,  100.0,   370.000,   240.000,   1,1.0000
    37,'2 ',   511.103,    59.471,   190.000,   -19.000,1.040000,     0,   616.840,   0.00000,   0.23500,   0.00000,   0.00000,   1.00000,1,  100.0,   370.000,   240.000,   1,1.0000
    37,'3 ',   511.103,    59.471,   190.000,   -19.000,1.040000,     0,   616.840,   0.00000,   0.23500,   0.00000,   0.00000,   1.00000,1,  100.0,   370.000,   240.000,   1,1.0000
    38,'1 ',   370.000,    70.115,   190.000,   -19.000,1.040000,     0,   451.840,   0.00000,   0.21000,   0.00000,   0.00000,   1.00000,1,  100.0,   370.000,   240.000,   1,1.0000
    38,'2 ',   340.000,    70.115,   190.000,   -19.000,1.040000,     0,   416.510,   0.00000,   0.21000,   0.00000,   0.00000,   1.00000,1,  100.0,   370.000,   240.000,   1,1.0000
    38,'3 ',   340.000,    70.115,   190.000,   -19.000,1.040000,     0,   416.510,   0.00000,   0.21000,   0.00000,   0.00000,   1.00000,1,  100.0,   370.000,   240.000,   1,1.0000
    55,'1 ',   205.000,   152.000,   152.000,   -33.000,1.090910,     0,   306.240,   0.00000,   0.21000,   0.00000,   0.00000,   1.00000,1,  100.0,   215.000,   110.000,   1,1.0000
    55,'2 ',     0.000,     0.000,   152.000,   -33.000,1.090910,     0,   220.000,   0.00000,   0.18000,   0.00000,   0.00000,   1.00000,0,  100.0,   220.000,   125.000,   1,1.0000
    56,'1 ',     0.000,     0.000,   149.000,   -33.000,1.090910,     0,   225.000,   0.00000,   0.18000,   0.00000,   0.00000,   1.00000,0,  100.0,   225.000,   125.000,   1,1.0000
    56,'2 ',   205.000,   149.000,   149.000,   -33.000,1.090910,     0,   304.120,   0.00000,   0.21000,   0.00000,   0.00000,   1.00000,1,  100.0,   225.000,   110.000,   1,1.0000
    57,'1 ',   225.000,    44.581,   149.000,   -33.000,1.090910,     0,   274.960,   0.00000,   0.18000,   0.00000,   0.00000,   1.00000,1,  100.0,   225.000,   110.000,   1,1.0000
    57,'2 ',   185.000,    44.581,   149.000,   -33.000,1.090910,     0,   228.010,   0.00000,   0.18000,   0.00000,   0.00000,   1.00000,1,  100.0,   225.000,   120.000,   1,1.0000
    58,'1 ',   330.000,   148.636,   363.000,   -47.000,1.035000,     0,   535.000,   0.00000,   0.23500,   0.00000,   0.00000,   1.00000,1,  100.0,   535.000,   255.000,   1,1.0000
    59,'1 ',   330.000,   148.636,   348.000,  -100.000,1.035000,     0,   560.000,   0.00000,   0.23500,   0.00000,   0.00000,   1.00000,1,  100.0,   560.000,   250.000,   1,1.0000
    68,'1 ',   210.000,   -14.000,   120.000,   -14.000,1.086360,     0,   252.560,   0.00000,   0.18000,   0.00000,   0.00000,   1.00000,1,  100.0,   225.000,   129.000,   1,1.0000
    69,'1 ',   225.000,     1.928,   120.000,   -14.000,1.086360,     0,   270.010,   0.00000,   0.18000,   0.00000,   0.00000,   1.00000,1,  100.0,   225.000,   129.000,   1,1.0000
    69,'2 ',   195.000,     1.928,    99.000,   -10.000,1.086360,     0,   234.010,   0.00000,   0.18000,   0.00000,   0.00000,   1.00000,1,  100.0,   225.000,   129.000,   1,1.0000
    70,'1 ',     0.000,     0.000,   120.000,   -14.000,1.032500,     0,   225.000,   0.00000,   0.18000,   0.00000,   0.00000,   1.00000,0,  100.0,   225.000,   129.000,   1,1.0000
    70,'2 ',     0.000,     0.000,   120.000,   -14.000,1.032500,     0,   225.000,   0.00000,   0.18000,   0.00000,   0.00000,   1.00000,0,  100.0,   225.000,   129.000,   1,1.0000
    71,'1 ',   225.000,    -4.313,    99.000,   -10.000,1.032500,     0,   270.050,   0.00000,   0.18000,   0.00000,   0.00000,   1.00000,1,  100.0,   225.000,   129.000,   1,1.0000
    71,'2 ',   215.000,    -4.313,   120.000,   -14.000,1.032500,     0,   258.060,   0.00000,   0.18000,   0.00000,   0.00000,   1.00000,1,  100.0,   225.000,   129.000,   1,1.0000
    92,'1 ',   220.000,   134.000,   134.000,    -7.000,1.081820,     0,   309.120,   0.00000,   0.21000,   0.00000,   0.00000,   1.00000,1,  100.0,   220.000,   140.000,   1,1.0000
    92,'2 ',   210.000,   131.000,   131.000,    -6.000,1.081820,     0,   297.010,   0.00000,   0.18000,   0.00000,   0.00000,   1.00000,1,  100.0,   225.000,   140.000,   1,1.0000
    93,'1 ',     0.000,     0.000,   131.000,    -6.000,1.081820,     0,   225.000,   0.00000,   0.18000,   0.00000,   0.00000,   1.00000,0,  100.0,   225.000,   140.000,   1,1.0000
    93,'2 ',   225.000,   131.000,   131.000,    -6.000,1.081820,     0,   312.430,   0.00000,   0.21000,   0.00000,   0.00000,   1.00000,1,  100.0,   225.000,   140.000,   1,1.0000
    93,'3 ',   205.000,   131.000,   131.000,    -6.000,1.081820,     0,   291.940,   0.00000,   0.18000,   0.00000,   0.00000,   1.00000,1,  100.0,   225.000,   140.000,   1,1.0000
    96,'1 ',   383.000,    -0.228,   213.000,   -30.000,1.037500,     0,   459.600,   0.00000,   0.21000,   0.00000,   0.00000,   1.00000,1,  100.0,   383.000,   180.000,   1,1.0000
    96,'2 ',   357.000,    -0.228,   212.000,   -31.000,1.037500,     0,   428.400,   0.00000,   0.21000,   0.00000,   0.00000,   1.00000,1,  100.0,   380.000,   180.000,   1,1.0000
   113,'1 ',     0.000,     0.000,     0.000,     0.000,1.077270,     0,    12.000,   0.00000,   0.20000,   0.00000,   0.00000,   1.00000,0,  100.0,    12.000,     0.000,   1,1.0000
   113,'2 ',     0.000,     0.000,     0.000,     0.000,1.077270,     0,     6.000,   0.00000,   0.20000,   0.00000,   0.00000,   1.00000,0,  100.0,     6.000,     0.000,   1,1.0000
   113,'3 ',    19.000,     0.000,     0.000,     0.000,1.077270,     0,    22.800,   0.00000,   0.20000,   0.00000,   0.00000,   1.00000,1,  100.0,    21.000,     0.000,   1,1.0000
   119,'1 ',   215.000,    95.889,   120.000,   -10.000,1.081820,     0,   282.490,   0.00000,   0.18000,   0.00000,   0.00000,   1.00000,1,  100.0,   225.000,   120.000,   1,1.0000
   120,'1 ',   215.000,    93.506,   120.000,   -10.000,1.081820,     0,   281.340,   0.00000,   0.18000,   0.00000,   0.00000,   1.00000,1,  100.0,   225.000,   120.000,   1,1.0000
   121,'1 ',   115.000,    73.000,    73.000,    -1.000,1.081820,     0,   163.450,   0.00000,   0.18000,   0.00000,   0.00000,   1.00000,1,  100.0,   120.000,    70.000,   1,1.0000
   122,'1 ',   115.000,    45.000,    73.000,    -1.000,1.081820,     0,   148.190,   0.00000,   0.18000,   0.00000,   0.00000,   1.00000,1,  100.0,   120.000,    70.000,   1,1.0000
   132,'1 ',     0.000,     0.000,    79.000,     0.000,1.077270,     0,   120.000,   0.00000,   0.18000,   0.00000,   0.00000,   1.00000,0,  100.0,   120.000,    70.000,   1,1.0000
   133,'1 ',   115.000,    79.000,    79.000,     0.000,1.077270,     0,   167.420,   0.00000,   0.18000,   0.00000,   0.00000,   1.00000,1,  100.0,   120.000,    70.000,   1,1.0000
   134,'1 ',   105.000,    31.000,    31.000,     0.000,1.072730,     0,   131.380,   0.00000,   0.18000,   0.00000,   0.00000,   1.00000,1,  100.0,   110.000,    80.000,   1,1.0000
   142,'1 ',   205.000,    49.193,   135.000,   -35.000,1.081820,     0,   252.980,   0.00000,   0.18000,   0.00000,   0.00000,   1.00000,1,  100.0,   215.000,   135.000,   1,1.0000
   143,'1 ',   215.000,    59.542,   135.000,   -35.000,1.081820,     0,   267.710,   0.00000,   0.18000,   0.00000,   0.00000,   1.00000,1,  100.0,   215.000,   135.000,   1,1.0000
   143,'2 ',   205.000,    59.542,   140.000,   -35.000,1.081820,     0,   256.160,   0.00000,   0.18000,   0.00000,   0.00000,   1.00000,1,  100.0,   225.000,   135.000,   1,1.0000
   144,'1 ',   225.000,     5.795,   140.000,   -36.000,1.037500,     0,   270.080,   0.00000,   0.18000,   0.00000,   0.00000,   1.00000,1,  100.0,   225.000,   135.000,   1,1.0000
   144,'2 ',   205.000,     5.795,   137.000,   -36.000,1.037500,     0,   246.100,   0.00000,   0.18000,   0.00000,   0.00000,   1.00000,1,  100.0,   220.000,   135.000,   1,1.0000
   150,'1 ',     0.000,     0.000,    72.000,   -29.000,1.040910,     0,   135.000,   0.00000,   0.18000,   0.00000,   0.00000,   1.00000,0,  100.0,   135.000,  -135.000,   1,1.0000
   150,'2 ',     0.000,     0.000,    72.000,   -29.000,1.040910,     0,   135.000,   0.00000,   0.18000,   0.00000,   0.00000,   1.00000,0,  100.0,   135.000,  -135.000,   1,1.0000
   151,'1 ',     0.000,     0.000,    72.000,   -29.000,1.040910,     0,   135.000,   0.00000,   0.18000,   0.00000,   0.00000,   1.00000,0,  100.0,   135.000,  -135.000,   1,1.0000
   151,'2 ',     0.000,     0.000,    72.000,   -29.000,1.040910,     0,   135.000,   0.00000,   0.18000,   0.00000,   0.00000,   1.00000,0,  100.0,   135.000,  -135.000,   1,1.0000
   152,'1 ',   110.000,    85.000,    85.000,   -15.000,1.068180,     0,   166.810,   0.00000,   0.18000,   0.00000,   0.00000,   1.00000,1,  100.0,   120.000,   100.000,   1,1.0000
   152,'2 ',     0.000,     0.000,    85.000,   -15.000,1.068180,     0,   120.000,   0.00000,   0.18000,   0.00000,   0.00000,   1.00000,0,  100.0,   120.000,   100.000,   1,1.0000
   153,'1 ',   110.000,    85.000,    85.000,   -15.000,1.068180,     0,   166.810,   0.00000,   0.18000,   0.00000,   0.00000,   1.00000,1,  100.0,   120.000,   100.000,   1,1.0000
   167,'1 ',     0.000,     0.000,    12.000,     0.000,1.050000,     0,    50.000,   0.00000,   0.20000,   0.00000,   0.00000,   1.00000,0,  100.0,    50.000,    40.000,   1,1.0000
   169,'1 ',   180.000,   111.000,   111.000,   -21.000,1.081820,     0,   253.760,   0.00000,   0.18000,   0.00000,   0.00000,   1.00000,1,  100.0,   205.000,   135.000,   1,1.0000
   170,'1 ',     0.000,     0.000,   102.000,   -15.000,1.081820,     0,   222.000,   0.00000,   0.18000,   0.00000,   0.00000,   1.00000,0,  100.0,   222.000,    90.000,   1,1.0000
   170,'2 ',     0.000,     0.000,   111.000,   -21.000,1.081820,     0,   205.000,   0.00000,   0.18000,   0.00000,   0.00000,   1.00000,0,  100.0,   205.000,   135.000,   1,1.0000
   170,'3 ',   180.000,   111.234,   119.000,   -31.000,1.081820,     0,   232.000,   0.00000,   0.18000,   0.00000,   0.00000,   1.00000,1,  100.0,   232.000,   100.000,   1,1.0000
   171,'1 ',   200.000,   101.260,   102.000,   -15.000,1.032500,     0,   268.920,   0.00000,   0.18000,   0.00000,   0.00000,   1.00000,1,  100.0,   222.000,    90.000,   1,1.0000
   172,'1 ',     0.000,     0.000,    93.000,   -10.000,1.032500,     0,   232.000,   0.00000,   0.18000,   0.00000,   0.00000,   1.00000,0,  100.0,   232.000,   100.000,   1,1.0000
   172,'2 ',   200.000,   101.260,   102.000,   -15.000,1.032500,     0,   268.920,   0.00000,   0.18000,   0.00000,   0.00000,   1.00000,1,  100.0,   222.000,    90.000,   1,1.0000
   177,'1 ',   261.000,   119.466,   127.000,   -35.000,1.090910,     0,   344.390,   0.00000,   0.21000,   0.00000,   0.00000,   1.00000,1,  100.0,   261.000,   104.000,   1,1.0000
   177,'2 ',   189.000,   119.466,   145.000,   -38.000,1.090910,     0,   268.220,   0.00000,   0.18000,   0.00000,   0.00000,   1.00000,1,  100.0,   235.000,    94.000,   1,1.0000
   178,'1 ',     0.000,     0.000,   103.000,   -17.000,1.090910,     0,   206.000,   0.00000,   0.18000,   0.00000,   0.00000,   1.00000,0,  100.0,   206.000,   120.000,   1,1.0000
   178,'2 ',   235.000,   102.684,   145.000,   -38.000,1.090910,     0,   307.620,   0.00000,   0.21000,   0.00000,   0.00000,   1.00000,1,  100.0,   235.000,    94.000,   1,1.0000
   178,'3 ',   220.000,   102.684,   127.000,   -35.000,1.090910,     0,   291.220,   0.00000,   0.18000,   0.00000,   0.00000,   1.00000,1,  100.0,   261.000,   104.000,   1,1.0000
   178,'4 ',   220.000,   102.684,   127.000,   -35.000,1.090910,     0,   291.220,   0.00000,   0.18000,   0.00000,   0.00000,   1.00000,1,  100.0,   261.000,   104.000,   1,1.0000
   180,'1 ',   206.000,   103.000,   103.000,   -17.000,1.030000,     0,   276.370,   0.00000,   0.18000,   0.00000,   0.00000,   1.00000,1,  100.0,   206.000,   120.000,   1,1.0000
   180,'2 ',   194.000,   103.000,   103.000,   -17.000,1.030000,     0,   263.580,   0.00000,   0.18000,   0.00000,   0.00000,   1.00000,1,  100.0,   206.000,   120.000,   1,1.0000
   188,'1 ',   180.000,    45.538,   112.000,   -32.000,1.054550,     0,   225.000,   0.00000,   0.18000,   0.00000,   0.00000,   1.00000,1,  100.0,   225.000,   150.000,   1,1.0000
   189,'1 ',   200.000,   112.000,   112.000,   -32.000,1.054550,     0,   275.060,   0.00000,   0.18000,   0.00000,   0.00000,   1.00000,1,  100.0,   200.000,   150.000,   1,1.0000
   189,'2 ',     0.000,     0.000,   112.000,   -32.000,1.054550,     0,   200.000,   0.00000,   0.18000,   0.00000,   0.00000,   1.00000,0,  100.0,   200.000,   150.000,   1,1.0000
   189,'3 ',   160.000,   112.000,   112.000,   -32.000,1.054550,     0,   234.360,   0.00000,   0.18000,   0.00000,   0.00000,   1.00000,1,  100.0,   200.000,   150.000,   1,1.0000
   190,'1 ',   400.000,   250.022,   294.000,  -259.000,1.005000,     0,   566.050,   0.00000,   0.23500,   0.00000,   0.00000,   1.00000,1,  100.0,   464.000,   186.000,   1,1.0000
   204,'1 ',     0.000,     0.000,   100.000,     0.000,1.000000,     0,   188.000,   0.00000,   0.18000,   0.00000,   0.00000,   1.00000,0,  100.0,   188.000,    76.000,   1,1.0000
   236,'1 ',   179.000,    23.216,   105.000,   -62.000,1.037500,     0,   216.550,   0.00000,   0.18000,   0.00000,   0.00000,   1.00000,1,  100.0,   179.000,  -200.000,   1,1.0000
   236,'2 ',    89.500,    23.216,   105.000,   -62.000,1.037500,     0,   179.000,   0.00000,   0.18000,   0.00000,   0.00000,   1.00000,1,  100.0,   179.000,  -200.000,   1,1.0000
   236,'3 ',    89.500,    23.216,   130.000,   -75.000,1.037500,     0,   179.000,   0.00000,   0.18000,   0.00000,   0.00000,   1.00000,1,  100.0,   179.000,  -200.000,   1,1.0000
   237,'1 ',     0.000,    69.649,   160.000,  -100.000,1.037500,     0,   179.000,   0.00000,   0.18000,   0.00000,   0.00000,   1.00000,1,  100.0,   179.000,  -200.000,   1,1.0000
   240,'1 ',   224.000,    37.696,   150.000,     0.000,1.090910,     0,   272.220,   0.00000,   0.18000,   0.00000,   0.00000,   1.00000,1,  100.0,   250.000,   113.000,   1,1.0000
   250,'1 ',     0.000,     0.000,    20.000,     0.000,1.081820,     0,    55.000,   0.00000,   0.20000,   0.00000,   0.00000,   1.00000,0,  100.0,    55.000,    23.000,   1,1.0000
   250,'2 ',     0.000,     0.000,    20.000,     0.000,1.081820,     0,    50.000,   0.00000,   0.20000,   0.00000,   0.00000,   1.00000,0,  100.0,    50.000,    25.000,   1,1.0000
   251,'1 ',    15.000,    17.653,    20.000,     0.000,1.081820,     0,    23.000,   0.00000,   0.20000,   0.00000,   0.00000,   1.00000,1,  100.0,    23.000,     7.000,   1,1.0000
   251,'2 ',     0.000,     0.000,    20.000,     0.000,1.081820,     0,    50.000,   0.00000,   0.20000,   0.00000,   0.00000,   1.00000,0,  100.0,    50.000,    25.000,   1,1.0000
   267,'1 ',     1.500,     1.000,     1.000,     0.000,1.072730,     0,     2.160,   0.00000,   0.20000,   0.00000,   0.00000,   1.00000,1,  100.0,     2.000,     0.000,   1,1.0000
   268,'1 ',     1.600,     1.000,     1.000,     0.000,1.063640,     0,     2.270,   0.00000,   0.20000,   0.00000,   0.00000,   1.00000,1,  100.0,     2.000,     0.000,   1,1.0000
   282,'1 ',     0.000,     0.000,     5.000,     0.000,1.072730,     0,     7.000,   0.00000,   0.20000,   0.00000,   0.00000,   1.00000,0,  100.0,     7.000,     6.000,   1,1.0000
   283,'1 ',     0.000,     0.000,     5.000,     0.000,1.072730,     0,     7.000,   0.00000,   0.20000,   0.00000,   0.00000,   1.00000,0,  100.0,     7.000,     6.000,   1,1.0000
   301,'1 ',     5.000,     3.700,     3.750,     0.000,1.045450,     0,     7.220,   0.00000,   0.20000,   0.00000,   0.00000,   1.00000,1,  100.0,     5.000,     1.000,   1,1.0000
   301,'2 ',     1.680,     3.700,     3.750,     0.000,1.045450,     0,     5.000,   0.00000,   0.20000,   0.00000,   0.00000,   1.00000,1,  100.0,     5.000,     1.000,   1,1.0000
   301,'3 ',     1.680,     3.700,     3.750,     0.000,1.045450,     0,     5.000,   0.00000,   0.20000,   0.00000,   0.00000,   1.00000,1,  100.0,     5.000,     1.000,   1,1.0000
   302,'1 ',     2.790,     0.000,     3.750,     0.000,1.045450,     0,     5.000,   0.00000,   0.20000,   0.00000,   0.00000,   1.00000,1,  100.0,     5.000,     1.000,   1,1.0000
   316,'1 ',   350.000,   190.000,   190.000,   -19.000,1.000000,     0,   477.900,   0.00000,   0.21000,   0.00000,   0.00000,   1.00000,1,  100.0,   370.000,   240.000,   1,1.0000
   322,'1 ',     0.000,     0.000,     2.000,     0.000,1.036360,     0,     6.000,   0.00000,   0.20000,   0.00000,   0.00000,   1.00000,0,  100.0,     6.000,     1.000,   1,1.0000
   322,'2 ',     0.000,     0.000,     2.000,     0.000,1.036360,     0,     6.000,   0.00000,   0.20000,   0.00000,   0.00000,   1.00000,0,  100.0,     6.000,     1.000,   1,1.0000
   369,'1 ',     9.160,     0.000,     4.000,     0.000,1.072730,     0,    30.000,   0.00000,   0.20000,   0.00000,   0.00000,   1.00000,1,  100.0,    30.000,     0.000,   1,1.0000
   398,'1 ',     0.000,     0.000,     5.000,     0.000,1.081820,     0,     7.000,   0.00000,   0.20000,   0.00000,   0.00000,   1.00000,0,  100.0,     7.000,     5.000,   1,1.0000
   402,'1 ',     0.900,     0.000,     1.000,     0.000,1.081820,     0,     1.080,   0.00000,   0.20000,   0.00000,   0.00000,   1.00000,1,  100.0,     1.000,     0.000,   1,1.0000
   402,'2 ',     0.550,     0.000,     1.000,     0.000,1.081820,     0,     1.000,   0.00000,   0.20000,   0.00000,   0.00000,   1.00000,1,  100.0,     1.000,     0.000,   1,1.0000
   402,'3 ',     0.550,     0.000,     1.000,     0.000,1.081820,     0,     1.000,   0.00000,   0.20000,   0.00000,   0.00000,   1.00000,1,  100.0,     1.000,     0.000,   1,1.0000
   409,'1 ',     0.000,     0.000,     7.000,     0.000,1.075450,     0,    27.000,   0.00000,   0.20000,   0.00000,   0.00000,   1.00000,0,  100.0,    27.000,    11.000,   1,1.0000
   409,'2 ',    20.000,     7.000,     7.000,     0.000,1.075450,     0,    30.000,   0.00000,   0.20000,   0.00000,   0.00000,   1.00000,1,  100.0,    30.000,    11.000,   1,1.0000
   409,'3 ',     0.000,     0.000,     6.000,     0.000,1.075450,     0,    30.000,   0.00000,   0.20000,   0.00000,   0.00000,   1.00000,0,  100.0,    30.000,     9.000,   1,1.0000
...